$ MSC.Nastran input file created on May       07, 2026 at 00:14:08 by
$ Patran 2020
$ Direct Text Input for Nastran System Cell Section
$ Direct Text Input for File Management Section
$ Direct Text Input for Executive Control
$ Buckling Analysis, Database
SOL 105
CEND
$ Direct Text Input for Global Case Control Data
TITLE = MSC.Nastran job created on 05-May-26 at 23:33:55
ECHO = NONE
   BCONTACT = 0
SUBCASE 1
$ Subcase name : Default
   SUBTITLE=Default
   SPC = 2
   LOAD = 2
   BCONTACT = 1
   DISPLACEMENT(SORT1,REAL)=ALL
   SPCFORCES(SORT1,REAL)=ALL
SUBCASE 2
$ Subcase name : Default
   SUBTITLE=Default
   SPC = 2
   METHOD = 1
   BCONTACT = 1
   VECTOR(SORT1,REAL)=ALL
   SPCFORCES(SORT1,REAL)=ALL
   STATSUB = 1
BEGIN BULK
$ Direct Text Input for Bulk Data
MDLPRM   HDF5    0
PARAM   PRTMAXIM YES
BCTABL1  0       8006
BCONECT  8006    3002            2       1
BCONPRG  3002            ERROR   .1      IGLUE   1       ISEARCH 1
BCTABL1  1       8006
EIGRL    1                       1       0
$ Elements and Element Properties for region : PLATE_SET
$ Composite Property Reference Material: LAMINATE
$ Composite Material Description :
PCOMP    1
         1       .131    0.      YES     1       .131    90.     YES
         1       .131    0.      YES     1       .131    90.     YES
         1       .131    90.     YES     1       .131    0.      YES
         1       .131    90.     YES     1       .131    0.      YES
$ Pset: "PLATE_SET" will be imported as: "pcomp.1"
CQUAD4   1       1       10      11      272     271     0
CQUAD4   2       1       11      12      273     272     0
CQUAD4   3       1       12      13      274     273     0
CQUAD4   4       1       13      14      275     274     0
CQUAD4   5       1       14      15      276     275     0
CQUAD4   6       1       15      16      277     276     0
CQUAD4   7       1       16      17      278     277     0
CQUAD4   8       1       17      18      279     278     0
CQUAD4   9       1       18      19      280     279     0
CQUAD4   10      1       19      20      281     280     0
CQUAD4   11      1       20      21      282     281     0
CQUAD4   12      1       21      22      283     282     0
CQUAD4   13      1       22      23      284     283     0
CQUAD4   14      1       23      24      285     284     0
CQUAD4   15      1       24      25      286     285     0
CQUAD4   16      1       25      26      287     286     0
CQUAD4   17      1       26      27      288     287     0
CQUAD4   18      1       27      28      289     288     0
CQUAD4   19      1       28      29      290     289     0
CQUAD4   20      1       29      30      291     290     0
$ ... 1260 like lines cut
CTRIA3   1281    1       1372    1373    1374    0
CQUAD4   1282    1       1510    1509    1515    1512    0
CQUAD4   1283    1       1509    1508    1516    1515    0
CQUAD4   1284    1       1508    1507    1517    1516    0
CQUAD4   1285    1       1507    1506    1518    1517    0
CQUAD4   1286    1       1506    1505    1519    1518    0
CQUAD4   1287    1       1505    1504    1520    1519    0
CQUAD4   1288    1       1504    1503    1521    1520    0
CQUAD4   1289    1       1503    1502    1522    1521    0
CQUAD4   1290    1       1502    1501    1523    1522    0
CQUAD4   1291    1       1501    1500    1524    1523    0
CQUAD4   1292    1       1500    1499    1525    1524    0
CQUAD4   1293    1       1499    1498    1526    1525    0
CQUAD4   1294    1       1498    1497    1527    1526    0
CQUAD4   1295    1       1497    1496    1528    1527    0
CQUAD4   1296    1       1496    1495    1529    1528    0
CQUAD4   1297    1       1495    1494    1530    1529    0
CQUAD4   1298    1       1494    1493    1531    1530    0
CQUAD4   1299    1       1493    1492    1532    1531    0
CQUAD4   1300    1       1492    1491    1533    1532    0
CQUAD4   1301    1       1491    1490    1534    1533    0
$ ... 202 like lines cut
CTRIA3   1504    1       1730    1633    1632    0
CQUAD4   1505    1       1632    1629    1631    1730    0
CQUAD4   1506    1       1665    1666    1731    1699    0
CQUAD4   1507    1       1666    1667    1700    1731    0
CQUAD4   1508    1       1631    1630    1732    1730    0
CQUAD4   1509    1       1700    1701    1733    1731    0
CQUAD4   1510    1       1701    1702    1734    1733    0
CQUAD4   1511    1       1702    1703    1735    1734    0
CQUAD4   1512    1       1703    1704    1736    1735    0
CQUAD4   1513    1       1704    1705    1737    1736    0
CQUAD4   1514    1       1705    1706    1738    1737    0
CQUAD4   1515    1       1706    1707    1739    1738    0
CQUAD4   1516    1       1707    1708    1740    1739    0
CQUAD4   1517    1       1708    1709    1741    1740    0
CQUAD4   1518    1       1709    1710    1742    1741    0
CQUAD4   1519    1       1710    1711    1743    1742    0
CQUAD4   1520    1       1711    1712    1744    1743    0
CQUAD4   1521    1       1712    1713    1745    1744    0
CQUAD4   1522    1       1713    1714    1746    1745    0
CQUAD4   1523    1       1714    1715    1747    1746    0
CQUAD4   1524    1       1715    1716    1748    1747    0
$ ... 193 like lines cut
CTRIA3   1718    1       1273    1902    1899    0
CTRIA3   1719    1       1897    1812    1813    0
CQUAD4   1720    1       1813    1814    1903    1897    0
CQUAD4   1721    1       1814    1815    1904    1903    0
CQUAD4   1722    1       1815    1816    1905    1904    0
CQUAD4   1723    1       1816    1817    1906    1905    0
CQUAD4   1724    1       1817    1818    1907    1906    0
CQUAD4   1725    1       1818    1819    1908    1907    0
CQUAD4   1726    1       1819    1820    1909    1908    0
CQUAD4   1727    1       1820    1821    1910    1909    0
CQUAD4   1728    1       1821    1822    1911    1910    0
CQUAD4   1729    1       1822    1823    1912    1911    0
CQUAD4   1730    1       1823    1824    1913    1912    0
CQUAD4   1731    1       1824    1825    1914    1913    0
CQUAD4   1732    1       1825    1826    1915    1914    0
CQUAD4   1733    1       1826    1827    1916    1915    0
CQUAD4   1734    1       1827    1828    1917    1916    0
CQUAD4   1735    1       1828    1829    1918    1917    0
CQUAD4   1736    1       1829    1830    1919    1918    0
CQUAD4   1737    1       1830    1831    1920    1919    0
CQUAD4   1738    1       1831    1832    1921    1920    0
CQUAD4   1739    1       1832    1833    1922    1921    0
$ ... 53 like lines cut
CTRIA3   1793    1       1974    1861    1860    0
CQUAD4   1794    1       1860    1859    1901    1974    0
CQUAD4   1795    1       1856    1857    1939    1975    0
CQUAD4   1796    1       1855    1856    1975    1976    0
CQUAD4   1797    1       1854    1855    1976    1977    0
CQUAD4   1798    1       1853    1854    1977    1978    0
CQUAD4   1799    1       1852    1853    1978    1979    0
CQUAD4   1800    1       1851    1852    1979    1938    0
CQUAD4   1801    1       1898    1897    1903    1984    0
CQUAD4   1802    1       1902    1898    1980    1981    0
CQUAD4   1803    1       1899    1902    1981    1982    0
CQUAD4   1804    1       1900    1899    1982    1983    0
CQUAD4   1805    1       1901    1900    1983    1974    0
CTRIA3   1806    1       1898    1984    1980    0
CQUAD4   1807    1       1974    1983    1985    1973    0
CQUAD4   1808    1       1983    1982    1986    1985    0
CQUAD4   1809    1       1982    1981    1987    1986    0
CQUAD4   1810    1       1981    1980    1988    1987    0
CQUAD4   1811    1       1980    1984    1989    1988    0
CQUAD4   1812    1       1984    1903    1904    1989    0
CQUAD4   1813    1       1904    1905    1990    1989    0
CQUAD4   1814    1       1905    1906    1991    1990    0
CQUAD4   1815    1       1906    1907    1992    1991    0
CQUAD4   1816    1       1907    1908    1993    1992    0
CQUAD4   1817    1       1908    1909    1994    1993    0
CQUAD4   1818    1       1909    1910    1995    1994    0
CQUAD4   1819    1       1910    1911    1996    1995    0
CQUAD4   1820    1       1911    1912    1997    1996    0
CQUAD4   1821    1       1912    1913    1998    1997    0
CQUAD4   1822    1       1913    1914    1999    1998    0
CQUAD4   1823    1       1914    1915    2000    1999    0
CQUAD4   1824    1       1915    1916    2001    2000    0
CQUAD4   1825    1       1916    1917    2002    2001    0
CQUAD4   1826    1       1917    1918    2003    2002    0
$ ... 200 like lines cut
$ Elements and Element Properties for region : PATCH_SET_ELEM_1_1
$ Composite Property Reference Material: LAM_ELEM_1_1_0_90_0
$ Composite Material Description :
PCOMP   2       
        1       0.131   -44.7254YES     1       0.131   44.7254 YES     
        1       0.131   -44.7254YES     
$ Pset: "PATCH_SET_ELEM_1_1" will be imported as: "pcomp.2"
CQUAD4   2027    2       2189    2198    2199    2167    0
$ Elements and Element Properties for region : PATCH_SET_ELEM_1_2
$ Composite Property Reference Material: LAM_ELEM_1_2_0_90_0
$ Composite Material Description :
PCOMP   3       
        1       0.131   -41.0158YES     1       0.131   41.0158 YES     
        1       0.131   -41.0158YES     
$ Pset: "PATCH_SET_ELEM_1_2" will be imported as: "pcomp.3"
CQUAD4   2037    3       2167    2199    2208    2166    0
$ Elements and Element Properties for region : PATCH_SET_ELEM_1_3
$ Composite Property Reference Material: LAM_ELEM_1_3_0_90_0
$ Composite Material Description :
PCOMP   4       
        1       0.131   -39.4043YES     1       0.131   39.4043 YES     
        1       0.131   -39.4043YES     
$ Pset: "PATCH_SET_ELEM_1_3" will be imported as: "pcomp.4"
CQUAD4   2047    4       2166    2208    2217    2165    0
$ Elements and Element Properties for region : PATCH_SET_ELEM_1_4
$ Composite Property Reference Material: LAM_ELEM_1_4_0_90_0
$ Composite Material Description :
PCOMP   5       
        1       0.131   -39.7381YES     1       0.131   39.7381 YES     
        1       0.131   -39.7381YES     
$ Pset: "PATCH_SET_ELEM_1_4" will be imported as: "pcomp.5"
CQUAD4   2057    5       2165    2217    2226    2164    0
$ Elements and Element Properties for region : PATCH_SET_ELEM_1_5
$ Composite Property Reference Material: LAM_ELEM_1_5_0_90_0
$ Composite Material Description :
PCOMP   6       
        1       0.131   -41.3807YES     1       0.131   41.3807 YES     
        1       0.131   -41.3807YES     
$ Pset: "PATCH_SET_ELEM_1_5" will be imported as: "pcomp.6"
CQUAD4   2067    6       2164    2226    2235    2163    0
$ Elements and Element Properties for region : PATCH_SET_ELEM_1_6
$ Composite Property Reference Material: LAM_ELEM_1_6_0_90_0
$ Composite Material Description :
PCOMP   7       
        1       0.131   -41.3807YES     1       0.131   41.3807 YES     
        1       0.131   -41.3807YES     
$ Pset: "PATCH_SET_ELEM_1_6" will be imported as: "pcomp.7"
CQUAD4   2077    7       2163    2235    2244    2162    0
$ Elements and Element Properties for region : PATCH_SET_ELEM_1_7
$ Composite Property Reference Material: LAM_ELEM_1_7_0_90_0
$ Composite Material Description :
PCOMP   8       
        1       0.131   -39.7381YES     1       0.131   39.7381 YES     
        1       0.131   -39.7381YES     
$ Pset: "PATCH_SET_ELEM_1_7" will be imported as: "pcomp.8"
CQUAD4   2087    8       2162    2244    2253    2161    0
$ Elements and Element Properties for region : PATCH_SET_ELEM_1_8
$ Composite Property Reference Material: LAM_ELEM_1_8_0_90_0
$ Composite Material Description :
PCOMP   9       
        1       0.131   -39.4043YES     1       0.131   39.4043 YES     
        1       0.131   -39.4043YES     
$ Pset: "PATCH_SET_ELEM_1_8" will be imported as: "pcomp.9"
CQUAD4   2097    9       2161    2253    2262    2160    0
$ Elements and Element Properties for region : PATCH_SET_ELEM_1_9
$ Composite Property Reference Material: LAM_ELEM_1_9_0_90_0
$ Composite Material Description :
PCOMP   10      
        1       0.131   -41.0158YES     1       0.131   41.0158 YES     
        1       0.131   -41.0158YES     
$ Pset: "PATCH_SET_ELEM_1_9" will be imported as: "pcomp.10"
CQUAD4   2107    10      2160    2262    2271    2159    0
$ Elements and Element Properties for region : PATCH_SET_ELEM_1_10
$ Composite Property Reference Material: LAM_ELEM_1_10_0_90_0
$ Composite Material Description :
PCOMP   11      
        1       0.131   -44.7254YES     1       0.131   44.7254 YES     
        1       0.131   -44.7254YES     
$ Pset: "PATCH_SET_ELEM_1_10" will be imported as: "pcomp.11"
CQUAD4   2117    11      2159    2271    2177    2168    0
$ Elements and Element Properties for region : PATCH_SET_ELEM_1_12
$ Composite Property Reference Material: LAM_ELEM_1_12_0_90_0
$ Composite Material Description :
PCOMP   12      
        1       0.131   -33.7332YES     1       0.131   33.7332 YES     
        1       0.131   -33.7332YES     
$ Pset: "PATCH_SET_ELEM_1_12" will be imported as: "pcomp.12"
CQUAD4   2038    12      2199    2200    2209    2208    0
$ Elements and Element Properties for region : PATCH_SET_ELEM_1_11
$ Composite Property Reference Material: LAM_ELEM_1_11_0_90_0
$ Composite Material Description :
PCOMP   13      
        1       0.131   -41.0158YES     1       0.131   41.0158 YES     
        1       0.131   -41.0158YES     
$ Pset: "PATCH_SET_ELEM_1_11" will be imported as: "pcomp.13"
CQUAD4   2028    13      2198    2197    2200    2199    0
$ Elements and Element Properties for region : PATCH_SET_ELEM_1_13
$ Composite Property Reference Material: LAM_ELEM_1_13_0_90_0
$ Composite Material Description :
PCOMP   14      
        1       0.131   -28.0928YES     1       0.131   28.0928 YES     
        1       0.131   -28.0928YES     
$ Pset: "PATCH_SET_ELEM_1_13" will be imported as: "pcomp.14"
CQUAD4   2048    14      2208    2209    2218    2217    0
$ Elements and Element Properties for region : PATCH_SET_ELEM_1_14
$ Composite Property Reference Material: LAM_ELEM_1_14_0_90_0
$ Composite Material Description :
PCOMP   15      
        1       0.131   -24.4978YES     1       0.131   24.4978 YES     
        1       0.131   -24.4978YES     
$ Pset: "PATCH_SET_ELEM_1_14" will be imported as: "pcomp.15"
CQUAD4   2058    15      2217    2218    2227    2226    0
$ Elements and Element Properties for region : PATCH_SET_ELEM_1_15
$ Composite Property Reference Material: LAM_ELEM_1_15_0_90_0
$ Composite Material Description :
PCOMP   16      
        1       0.131   -23.0442YES     1       0.131   23.0442 YES     
        1       0.131   -23.0442YES     
$ Pset: "PATCH_SET_ELEM_1_15" will be imported as: "pcomp.16"
CQUAD4   2068    16      2226    2227    2236    2235    0
$ Elements and Element Properties for region : PATCH_SET_ELEM_1_16
$ Composite Property Reference Material: LAM_ELEM_1_16_0_90_0
$ Composite Material Description :
PCOMP   17      
        1       0.131   -23.0442YES     1       0.131   23.0442 YES     
        1       0.131   -23.0442YES     
$ Pset: "PATCH_SET_ELEM_1_16" will be imported as: "pcomp.17"
CQUAD4   2078    17      2235    2236    2245    2244    0
$ Elements and Element Properties for region : PATCH_SET_ELEM_1_17
$ Composite Property Reference Material: LAM_ELEM_1_17_0_90_0
$ Composite Material Description :
PCOMP   18      
        1       0.131   -24.4978YES     1       0.131   24.4978 YES     
        1       0.131   -24.4978YES     
$ Pset: "PATCH_SET_ELEM_1_17" will be imported as: "pcomp.18"
CQUAD4   2088    18      2244    2245    2254    2253    0
$ Elements and Element Properties for region : PATCH_SET_ELEM_1_18
$ Composite Property Reference Material: LAM_ELEM_1_18_0_90_0
$ Composite Material Description :
PCOMP   19      
        1       0.131   -28.0928YES     1       0.131   28.0928 YES     
        1       0.131   -28.0928YES     
$ Pset: "PATCH_SET_ELEM_1_18" will be imported as: "pcomp.19"
CQUAD4   2098    19      2253    2254    2263    2262    0
$ Elements and Element Properties for region : PATCH_SET_ELEM_1_19
$ Composite Property Reference Material: LAM_ELEM_1_19_0_90_0
$ Composite Material Description :
PCOMP   20      
        1       0.131   -33.7332YES     1       0.131   33.7332 YES     
        1       0.131   -33.7332YES     
$ Pset: "PATCH_SET_ELEM_1_19" will be imported as: "pcomp.20"
CQUAD4   2108    20      2262    2263    2272    2271    0
$ Elements and Element Properties for region : PATCH_SET_ELEM_1_20
$ Composite Property Reference Material: LAM_ELEM_1_20_0_90_0
$ Composite Material Description :
PCOMP   21      
        1       0.131   -41.0158YES     1       0.131   41.0158 YES     
        1       0.131   -41.0158YES     
$ Pset: "PATCH_SET_ELEM_1_20" will be imported as: "pcomp.21"
CQUAD4   2118    21      2271    2272    2176    2177    0
$ Elements and Element Properties for region : PATCH_SET_ELEM_1_21
$ Composite Property Reference Material: LAM_ELEM_1_21_0_90_0
$ Composite Material Description :
PCOMP   22      
        1       0.131   -39.4043YES     1       0.131   39.4043 YES     
        1       0.131   -39.4043YES     
$ Pset: "PATCH_SET_ELEM_1_21" will be imported as: "pcomp.22"
CQUAD4   2029    22      2197    2196    2201    2200    0
$ Elements and Element Properties for region : PATCH_SET_ELEM_1_22
$ Composite Property Reference Material: LAM_ELEM_1_22_0_90_0
$ Composite Material Description :
PCOMP   23      
        1       0.131   -28.0928YES     1       0.131   28.0928 YES     
        1       0.131   -28.0928YES     
$ Pset: "PATCH_SET_ELEM_1_22" will be imported as: "pcomp.23"
CQUAD4   2039    23      2200    2201    2210    2209    0
$ Elements and Element Properties for region : PATCH_SET_ELEM_1_23
$ Composite Property Reference Material: LAM_ELEM_1_23_0_90_0
$ Composite Material Description :
PCOMP   24      
        1       0.131   -17.4789YES     1       0.131   17.4789 YES     
        1       0.131   -17.4789YES     
$ Pset: "PATCH_SET_ELEM_1_23" will be imported as: "pcomp.24"
CQUAD4   2049    24      2209    2210    2219    2218    0
$ Elements and Element Properties for region : PATCH_SET_ELEM_1_24
$ Composite Property Reference Material: LAM_ELEM_1_24_0_90_0
$ Composite Material Description :
PCOMP   25      
        1       0.131   -8.9776 YES     1       0.131   8.9776  YES     
        1       0.131   -8.9776 YES     
$ Pset: "PATCH_SET_ELEM_1_24" will be imported as: "pcomp.25"
CQUAD4   2059    25      2218    2219    2228    2227    0
$ Elements and Element Properties for region : PATCH_SET_ELEM_1_25
$ Composite Property Reference Material: LAM_ELEM_1_25_0_90_0
$ Composite Material Description :
PCOMP   26      
        1       0.131   -4.1332 YES     1       0.131   4.1332  YES     
        1       0.131   -4.1332 YES     
$ Pset: "PATCH_SET_ELEM_1_25" will be imported as: "pcomp.26"
CQUAD4   2069    26      2227    2228    2237    2236    0
$ Elements and Element Properties for region : PATCH_SET_ELEM_1_26
$ Composite Property Reference Material: LAM_ELEM_1_26_0_90_0
$ Composite Material Description :
PCOMP   27      
        1       0.131   -4.1332 YES     1       0.131   4.1332  YES     
        1       0.131   -4.1332 YES     
$ Pset: "PATCH_SET_ELEM_1_26" will be imported as: "pcomp.27"
CQUAD4   2079    27      2236    2237    2246    2245    0
$ Elements and Element Properties for region : PATCH_SET_ELEM_1_27
$ Composite Property Reference Material: LAM_ELEM_1_27_0_90_0
$ Composite Material Description :
PCOMP   28      
        1       0.131   -8.9776 YES     1       0.131   8.9776  YES     
        1       0.131   -8.9776 YES     
$ Pset: "PATCH_SET_ELEM_1_27" will be imported as: "pcomp.28"
CQUAD4   2089    28      2245    2246    2255    2254    0
$ Elements and Element Properties for region : PATCH_SET_ELEM_1_28
$ Composite Property Reference Material: LAM_ELEM_1_28_0_90_0
$ Composite Material Description :
PCOMP   29      
        1       0.131   -17.4789YES     1       0.131   17.4789 YES     
        1       0.131   -17.4789YES     
$ Pset: "PATCH_SET_ELEM_1_28" will be imported as: "pcomp.29"
CQUAD4   2099    29      2254    2255    2264    2263    0
$ Elements and Element Properties for region : PATCH_SET_ELEM_1_29
$ Composite Property Reference Material: LAM_ELEM_1_29_0_90_0
$ Composite Material Description :
PCOMP   30      
        1       0.131   -28.0928YES     1       0.131   28.0928 YES     
        1       0.131   -28.0928YES     
$ Pset: "PATCH_SET_ELEM_1_29" will be imported as: "pcomp.30"
CQUAD4   2109    30      2263    2264    2273    2272    0
$ Elements and Element Properties for region : PATCH_SET_ELEM_1_30
$ Composite Property Reference Material: LAM_ELEM_1_30_0_90_0
$ Composite Material Description :
PCOMP   31      
        1       0.131   -39.4043YES     1       0.131   39.4043 YES     
        1       0.131   -39.4043YES     
$ Pset: "PATCH_SET_ELEM_1_30" will be imported as: "pcomp.31"
CQUAD4   2119    31      2272    2273    2175    2176    0
$ Elements and Element Properties for region : PATCH_SET_ELEM_1_31
$ Composite Property Reference Material: LAM_ELEM_1_31_0_90_0
$ Composite Material Description :
PCOMP   32      
        1       0.131   -39.7381YES     1       0.131   39.7381 YES     
        1       0.131   -39.7381YES     
$ Pset: "PATCH_SET_ELEM_1_31" will be imported as: "pcomp.32"
CQUAD4   2030    32      2196    2195    2202    2201    0
$ Elements and Element Properties for region : PATCH_SET_ELEM_1_32
$ Composite Property Reference Material: LAM_ELEM_1_32_0_90_0
$ Composite Material Description :
PCOMP   33      
        1       0.131   -24.4978YES     1       0.131   24.4978 YES     
        1       0.131   -24.4978YES     
$ Pset: "PATCH_SET_ELEM_1_32" will be imported as: "pcomp.33"
CQUAD4   2040    33      2201    2202    2211    2210    0
$ Elements and Element Properties for region : PATCH_SET_ELEM_1_33
$ Composite Property Reference Material: LAM_ELEM_1_33_0_90_0
$ Composite Material Description :
PCOMP   34      
        1       0.131   -8.9776 YES     1       0.131   8.9776  YES     
        1       0.131   -8.9776 YES     
$ Pset: "PATCH_SET_ELEM_1_33" will be imported as: "pcomp.34"
CQUAD4   2050    34      2210    2211    2220    2219    0
$ Elements and Element Properties for region : PATCH_SET_ELEM_1_34
$ Composite Property Reference Material: LAM_ELEM_1_34_0_90_0
$ Composite Material Description :
PCOMP   35      
        1       0.131   4.5181  YES     1       0.131   -4.5181 YES     
        1       0.131   4.5181  YES     
$ Pset: "PATCH_SET_ELEM_1_34" will be imported as: "pcomp.35"
CQUAD4   2060    35      2219    2220    2229    2228    0
$ Elements and Element Properties for region : PATCH_SET_ELEM_1_35
$ Composite Property Reference Material: LAM_ELEM_1_35_0_90_0
$ Composite Material Description :
PCOMP   36      
        1       0.131   13.0313 YES     1       0.131   -13.0313YES     
        1       0.131   13.0313 YES     
$ Pset: "PATCH_SET_ELEM_1_35" will be imported as: "pcomp.36"
CQUAD4   2070    36      2228    2229    2238    2237    0
$ Elements and Element Properties for region : PATCH_SET_ELEM_1_36
$ Composite Property Reference Material: LAM_ELEM_1_36_0_90_0
$ Composite Material Description :
PCOMP   37      
        1       0.131   13.0313 YES     1       0.131   -13.0313YES     
        1       0.131   13.0313 YES     
$ Pset: "PATCH_SET_ELEM_1_36" will be imported as: "pcomp.37"
CQUAD4   2080    37      2237    2238    2247    2246    0
$ Elements and Element Properties for region : PATCH_SET_ELEM_1_37
$ Composite Property Reference Material: LAM_ELEM_1_37_0_90_0
$ Composite Material Description :
PCOMP   38      
        1       0.131   4.5181  YES     1       0.131   -4.5181 YES     
        1       0.131   4.5181  YES     
$ Pset: "PATCH_SET_ELEM_1_37" will be imported as: "pcomp.38"
CQUAD4   2090    38      2246    2247    2256    2255    0
$ Elements and Element Properties for region : PATCH_SET_ELEM_1_38
$ Composite Property Reference Material: LAM_ELEM_1_38_0_90_0
$ Composite Material Description :
PCOMP   39      
        1       0.131   -8.9776 YES     1       0.131   8.9776  YES     
        1       0.131   -8.9776 YES     
$ Pset: "PATCH_SET_ELEM_1_38" will be imported as: "pcomp.39"
CQUAD4   2100    39      2255    2256    2265    2264    0
$ Elements and Element Properties for region : PATCH_SET_ELEM_1_39
$ Composite Property Reference Material: LAM_ELEM_1_39_0_90_0
$ Composite Material Description :
PCOMP   40      
        1       0.131   -24.4978YES     1       0.131   24.4978 YES     
        1       0.131   -24.4978YES     
$ Pset: "PATCH_SET_ELEM_1_39" will be imported as: "pcomp.40"
CQUAD4   2110    40      2264    2265    2274    2273    0
$ Elements and Element Properties for region : PATCH_SET_ELEM_1_40
$ Composite Property Reference Material: LAM_ELEM_1_40_0_90_0
$ Composite Material Description :
PCOMP   41      
        1       0.131   -39.7381YES     1       0.131   39.7381 YES     
        1       0.131   -39.7381YES     
$ Pset: "PATCH_SET_ELEM_1_40" will be imported as: "pcomp.41"
CQUAD4   2120    41      2273    2274    2174    2175    0
$ Elements and Element Properties for region : PATCH_SET_ELEM_1_41
$ Composite Property Reference Material: LAM_ELEM_1_41_0_90_0
$ Composite Material Description :
PCOMP   42      
        1       0.131   -41.3807YES     1       0.131   41.3807 YES     
        1       0.131   -41.3807YES     
$ Pset: "PATCH_SET_ELEM_1_41" will be imported as: "pcomp.42"
CQUAD4   2031    42      2195    2194    2203    2202    0
$ Elements and Element Properties for region : PATCH_SET_ELEM_1_42
$ Composite Property Reference Material: LAM_ELEM_1_42_0_90_0
$ Composite Material Description :
PCOMP   43      
        1       0.131   -23.0442YES     1       0.131   23.0442 YES     
        1       0.131   -23.0442YES     
$ Pset: "PATCH_SET_ELEM_1_42" will be imported as: "pcomp.43"
CQUAD4   2041    43      2202    2203    2212    2211    0
$ Elements and Element Properties for region : PATCH_SET_ELEM_1_43
$ Composite Property Reference Material: LAM_ELEM_1_43_0_90_0
$ Composite Material Description :
PCOMP   44      
        1       0.131   -4.1332 YES     1       0.131   4.1332  YES     
        1       0.131   -4.1332 YES     
$ Pset: "PATCH_SET_ELEM_1_43" will be imported as: "pcomp.44"
CQUAD4   2051    44      2211    2212    2221    2220    0
$ Elements and Element Properties for region : PATCH_SET_ELEM_1_44
$ Composite Property Reference Material: LAM_ELEM_1_44_0_90_0
$ Composite Material Description :
PCOMP   45      
        1       0.131   13.0313 YES     1       0.131   -13.0313YES     
        1       0.131   13.0313 YES     
$ Pset: "PATCH_SET_ELEM_1_44" will be imported as: "pcomp.45"
CQUAD4   2061    45      2220    2221    2230    2229    0
$ Elements and Element Properties for region : PATCH_SET_ELEM_1_45
$ Composite Property Reference Material: LAM_ELEM_1_45_0_90_0
$ Composite Material Description :
PCOMP   46      
        1       0.131   25.2541 YES     1       0.131   -25.2541YES     
        1       0.131   25.2541 YES     
$ Pset: "PATCH_SET_ELEM_1_45" will be imported as: "pcomp.46"
CQUAD4   2071    46      2229    2230    2239    2238    0
$ Elements and Element Properties for region : PATCH_SET_ELEM_1_46
$ Composite Property Reference Material: LAM_ELEM_1_46_0_90_0
$ Composite Material Description :
PCOMP   47      
        1       0.131   25.2541 YES     1       0.131   -25.2541YES     
        1       0.131   25.2541 YES     
$ Pset: "PATCH_SET_ELEM_1_46" will be imported as: "pcomp.47"
CQUAD4   2081    47      2238    2239    2248    2247    0
$ Elements and Element Properties for region : PATCH_SET_ELEM_1_47
$ Composite Property Reference Material: LAM_ELEM_1_47_0_90_0
$ Composite Material Description :
PCOMP   48      
        1       0.131   13.0313 YES     1       0.131   -13.0313YES     
        1       0.131   13.0313 YES     
$ Pset: "PATCH_SET_ELEM_1_47" will be imported as: "pcomp.48"
CQUAD4   2091    48      2247    2248    2257    2256    0
$ Elements and Element Properties for region : PATCH_SET_ELEM_1_48
$ Composite Property Reference Material: LAM_ELEM_1_48_0_90_0
$ Composite Material Description :
PCOMP   49      
        1       0.131   -4.1332 YES     1       0.131   4.1332  YES     
        1       0.131   -4.1332 YES     
$ Pset: "PATCH_SET_ELEM_1_48" will be imported as: "pcomp.49"
CQUAD4   2101    49      2256    2257    2266    2265    0
$ Elements and Element Properties for region : PATCH_SET_ELEM_1_49
$ Composite Property Reference Material: LAM_ELEM_1_49_0_90_0
$ Composite Material Description :
PCOMP   50      
        1       0.131   -23.0442YES     1       0.131   23.0442 YES     
        1       0.131   -23.0442YES     
$ Pset: "PATCH_SET_ELEM_1_49" will be imported as: "pcomp.50"
CQUAD4   2111    50      2265    2266    2275    2274    0
$ Elements and Element Properties for region : PATCH_SET_ELEM_1_50
$ Composite Property Reference Material: LAM_ELEM_1_50_0_90_0
$ Composite Material Description :
PCOMP   51      
        1       0.131   -41.3807YES     1       0.131   41.3807 YES     
        1       0.131   -41.3807YES     
$ Pset: "PATCH_SET_ELEM_1_50" will be imported as: "pcomp.51"
CQUAD4   2121    51      2274    2275    2173    2174    0
$ Elements and Element Properties for region : PATCH_SET_ELEM_1_51
$ Composite Property Reference Material: LAM_ELEM_1_51_0_90_0
$ Composite Material Description :
PCOMP   52      
        1       0.131   -41.3807YES     1       0.131   41.3807 YES     
        1       0.131   -41.3807YES     
$ Pset: "PATCH_SET_ELEM_1_51" will be imported as: "pcomp.52"
CQUAD4   2032    52      2194    2193    2204    2203    0
$ Elements and Element Properties for region : PATCH_SET_ELEM_1_52
$ Composite Property Reference Material: LAM_ELEM_1_52_0_90_0
$ Composite Material Description :
PCOMP   53      
        1       0.131   -23.0442YES     1       0.131   23.0442 YES     
        1       0.131   -23.0442YES     
$ Pset: "PATCH_SET_ELEM_1_52" will be imported as: "pcomp.53"
CQUAD4   2042    53      2203    2204    2213    2212    0
$ Elements and Element Properties for region : PATCH_SET_ELEM_1_53
$ Composite Property Reference Material: LAM_ELEM_1_53_0_90_0
$ Composite Material Description :
PCOMP   54      
        1       0.131   -4.1332 YES     1       0.131   4.1332  YES     
        1       0.131   -4.1332 YES     
$ Pset: "PATCH_SET_ELEM_1_53" will be imported as: "pcomp.54"
CQUAD4   2052    54      2212    2213    2222    2221    0
$ Elements and Element Properties for region : PATCH_SET_ELEM_1_54
$ Composite Property Reference Material: LAM_ELEM_1_54_0_90_0
$ Composite Material Description :
PCOMP   55      
        1       0.131   13.0313 YES     1       0.131   -13.0313YES     
        1       0.131   13.0313 YES     
$ Pset: "PATCH_SET_ELEM_1_54" will be imported as: "pcomp.55"
CQUAD4   2062    55      2221    2222    2231    2230    0
$ Elements and Element Properties for region : PATCH_SET_ELEM_1_55
$ Composite Property Reference Material: LAM_ELEM_1_55_0_90_0
$ Composite Material Description :
PCOMP   56      
        1       0.131   25.2541 YES     1       0.131   -25.2541YES     
        1       0.131   25.2541 YES     
$ Pset: "PATCH_SET_ELEM_1_55" will be imported as: "pcomp.56"
CQUAD4   2072    56      2230    2231    2240    2239    0
$ Elements and Element Properties for region : PATCH_SET_ELEM_1_56
$ Composite Property Reference Material: LAM_ELEM_1_56_0_90_0
$ Composite Material Description :
PCOMP   57      
        1       0.131   25.2541 YES     1       0.131   -25.2541YES     
        1       0.131   25.2541 YES     
$ Pset: "PATCH_SET_ELEM_1_56" will be imported as: "pcomp.57"
CQUAD4   2082    57      2239    2240    2249    2248    0
$ Elements and Element Properties for region : PATCH_SET_ELEM_1_57
$ Composite Property Reference Material: LAM_ELEM_1_57_0_90_0
$ Composite Material Description :
PCOMP   58      
        1       0.131   13.0313 YES     1       0.131   -13.0313YES     
        1       0.131   13.0313 YES     
$ Pset: "PATCH_SET_ELEM_1_57" will be imported as: "pcomp.58"
CQUAD4   2092    58      2248    2249    2258    2257    0
$ Elements and Element Properties for region : PATCH_SET_ELEM_1_58
$ Composite Property Reference Material: LAM_ELEM_1_58_0_90_0
$ Composite Material Description :
PCOMP   59      
        1       0.131   -4.1332 YES     1       0.131   4.1332  YES     
        1       0.131   -4.1332 YES     
$ Pset: "PATCH_SET_ELEM_1_58" will be imported as: "pcomp.59"
CQUAD4   2102    59      2257    2258    2267    2266    0
$ Elements and Element Properties for region : PATCH_SET_ELEM_1_59
$ Composite Property Reference Material: LAM_ELEM_1_59_0_90_0
$ Composite Material Description :
PCOMP   60      
        1       0.131   -23.0442YES     1       0.131   23.0442 YES     
        1       0.131   -23.0442YES     
$ Pset: "PATCH_SET_ELEM_1_59" will be imported as: "pcomp.60"
CQUAD4   2112    60      2266    2267    2276    2275    0
$ Elements and Element Properties for region : PATCH_SET_ELEM_1_60
$ Composite Property Reference Material: LAM_ELEM_1_60_0_90_0
$ Composite Material Description :
PCOMP   61      
        1       0.131   -41.3807YES     1       0.131   41.3807 YES     
        1       0.131   -41.3807YES     
$ Pset: "PATCH_SET_ELEM_1_60" will be imported as: "pcomp.61"
CQUAD4   2122    61      2275    2276    2172    2173    0
$ Elements and Element Properties for region : PATCH_SET_ELEM_1_61
$ Composite Property Reference Material: LAM_ELEM_1_61_0_90_0
$ Composite Material Description :
PCOMP   62      
        1       0.131   -39.7381YES     1       0.131   39.7381 YES     
        1       0.131   -39.7381YES     
$ Pset: "PATCH_SET_ELEM_1_61" will be imported as: "pcomp.62"
CQUAD4   2033    62      2193    2192    2205    2204    0
$ Elements and Element Properties for region : PATCH_SET_ELEM_1_62
$ Composite Property Reference Material: LAM_ELEM_1_62_0_90_0
$ Composite Material Description :
PCOMP   63      
        1       0.131   -24.4978YES     1       0.131   24.4978 YES     
        1       0.131   -24.4978YES     
$ Pset: "PATCH_SET_ELEM_1_62" will be imported as: "pcomp.63"
CQUAD4   2043    63      2204    2205    2214    2213    0
$ Elements and Element Properties for region : PATCH_SET_ELEM_1_63
$ Composite Property Reference Material: LAM_ELEM_1_63_0_90_0
$ Composite Material Description :
PCOMP   64      
        1       0.131   -8.9776 YES     1       0.131   8.9776  YES     
        1       0.131   -8.9776 YES     
$ Pset: "PATCH_SET_ELEM_1_63" will be imported as: "pcomp.64"
CQUAD4   2053    64      2213    2214    2223    2222    0
$ Elements and Element Properties for region : PATCH_SET_ELEM_1_64
$ Composite Property Reference Material: LAM_ELEM_1_64_0_90_0
$ Composite Material Description :
PCOMP   65      
        1       0.131   4.5181  YES     1       0.131   -4.5181 YES     
        1       0.131   4.5181  YES     
$ Pset: "PATCH_SET_ELEM_1_64" will be imported as: "pcomp.65"
CQUAD4   2063    65      2222    2223    2232    2231    0
$ Elements and Element Properties for region : PATCH_SET_ELEM_1_65
$ Composite Property Reference Material: LAM_ELEM_1_65_0_90_0
$ Composite Material Description :
PCOMP   66      
        1       0.131   13.0313 YES     1       0.131   -13.0313YES     
        1       0.131   13.0313 YES     
$ Pset: "PATCH_SET_ELEM_1_65" will be imported as: "pcomp.66"
CQUAD4   2073    66      2231    2232    2241    2240    0
$ Elements and Element Properties for region : PATCH_SET_ELEM_1_66
$ Composite Property Reference Material: LAM_ELEM_1_66_0_90_0
$ Composite Material Description :
PCOMP   67      
        1       0.131   13.0313 YES     1       0.131   -13.0313YES     
        1       0.131   13.0313 YES     
$ Pset: "PATCH_SET_ELEM_1_66" will be imported as: "pcomp.67"
CQUAD4   2083    67      2240    2241    2250    2249    0
$ Elements and Element Properties for region : PATCH_SET_ELEM_1_67
$ Composite Property Reference Material: LAM_ELEM_1_67_0_90_0
$ Composite Material Description :
PCOMP   68      
        1       0.131   4.5181  YES     1       0.131   -4.5181 YES     
        1       0.131   4.5181  YES     
$ Pset: "PATCH_SET_ELEM_1_67" will be imported as: "pcomp.68"
CQUAD4   2093    68      2249    2250    2259    2258    0
$ Elements and Element Properties for region : PATCH_SET_ELEM_1_68
$ Composite Property Reference Material: LAM_ELEM_1_68_0_90_0
$ Composite Material Description :
PCOMP   69      
        1       0.131   -8.9776 YES     1       0.131   8.9776  YES     
        1       0.131   -8.9776 YES     
$ Pset: "PATCH_SET_ELEM_1_68" will be imported as: "pcomp.69"
CQUAD4   2103    69      2258    2259    2268    2267    0
$ Elements and Element Properties for region : PATCH_SET_ELEM_1_69
$ Composite Property Reference Material: LAM_ELEM_1_69_0_90_0
$ Composite Material Description :
PCOMP   70      
        1       0.131   -24.4978YES     1       0.131   24.4978 YES     
        1       0.131   -24.4978YES     
$ Pset: "PATCH_SET_ELEM_1_69" will be imported as: "pcomp.70"
CQUAD4   2113    70      2267    2268    2277    2276    0
$ Elements and Element Properties for region : PATCH_SET_ELEM_1_70
$ Composite Property Reference Material: LAM_ELEM_1_70_0_90_0
$ Composite Material Description :
PCOMP   71      
        1       0.131   -39.7381YES     1       0.131   39.7381 YES     
        1       0.131   -39.7381YES     
$ Pset: "PATCH_SET_ELEM_1_70" will be imported as: "pcomp.71"
CQUAD4   2123    71      2276    2277    2171    2172    0
$ Elements and Element Properties for region : PATCH_SET_ELEM_1_71
$ Composite Property Reference Material: LAM_ELEM_1_71_0_90_0
$ Composite Material Description :
PCOMP   72      
        1       0.131   -39.4043YES     1       0.131   39.4043 YES     
        1       0.131   -39.4043YES     
$ Pset: "PATCH_SET_ELEM_1_71" will be imported as: "pcomp.72"
CQUAD4   2034    72      2192    2191    2206    2205    0
$ Elements and Element Properties for region : PATCH_SET_ELEM_1_72
$ Composite Property Reference Material: LAM_ELEM_1_72_0_90_0
$ Composite Material Description :
PCOMP   73      
        1       0.131   -28.0928YES     1       0.131   28.0928 YES     
        1       0.131   -28.0928YES     
$ Pset: "PATCH_SET_ELEM_1_72" will be imported as: "pcomp.73"
CQUAD4   2044    73      2205    2206    2215    2214    0
$ Elements and Element Properties for region : PATCH_SET_ELEM_1_73
$ Composite Property Reference Material: LAM_ELEM_1_73_0_90_0
$ Composite Material Description :
PCOMP   74      
        1       0.131   -17.4789YES     1       0.131   17.4789 YES     
        1       0.131   -17.4789YES     
$ Pset: "PATCH_SET_ELEM_1_73" will be imported as: "pcomp.74"
CQUAD4   2054    74      2214    2215    2224    2223    0
$ Elements and Element Properties for region : PATCH_SET_ELEM_1_74
$ Composite Property Reference Material: LAM_ELEM_1_74_0_90_0
$ Composite Material Description :
PCOMP   75      
        1       0.131   -8.9776 YES     1       0.131   8.9776  YES     
        1       0.131   -8.9776 YES     
$ Pset: "PATCH_SET_ELEM_1_74" will be imported as: "pcomp.75"
CQUAD4   2064    75      2223    2224    2233    2232    0
$ Elements and Element Properties for region : PATCH_SET_ELEM_1_75
$ Composite Property Reference Material: LAM_ELEM_1_75_0_90_0
$ Composite Material Description :
PCOMP   76      
        1       0.131   -4.1332 YES     1       0.131   4.1332  YES     
        1       0.131   -4.1332 YES     
$ Pset: "PATCH_SET_ELEM_1_75" will be imported as: "pcomp.76"
CQUAD4   2074    76      2232    2233    2242    2241    0
$ Elements and Element Properties for region : PATCH_SET_ELEM_1_76
$ Composite Property Reference Material: LAM_ELEM_1_76_0_90_0
$ Composite Material Description :
PCOMP   77      
        1       0.131   -4.1332 YES     1       0.131   4.1332  YES     
        1       0.131   -4.1332 YES     
$ Pset: "PATCH_SET_ELEM_1_76" will be imported as: "pcomp.77"
CQUAD4   2084    77      2241    2242    2251    2250    0
$ Elements and Element Properties for region : PATCH_SET_ELEM_1_77
$ Composite Property Reference Material: LAM_ELEM_1_77_0_90_0
$ Composite Material Description :
PCOMP   78      
        1       0.131   -8.9776 YES     1       0.131   8.9776  YES     
        1       0.131   -8.9776 YES     
$ Pset: "PATCH_SET_ELEM_1_77" will be imported as: "pcomp.78"
CQUAD4   2094    78      2250    2251    2260    2259    0
$ Elements and Element Properties for region : PATCH_SET_ELEM_1_78
$ Composite Property Reference Material: LAM_ELEM_1_78_0_90_0
$ Composite Material Description :
PCOMP   79      
        1       0.131   -17.4789YES     1       0.131   17.4789 YES     
        1       0.131   -17.4789YES     
$ Pset: "PATCH_SET_ELEM_1_78" will be imported as: "pcomp.79"
CQUAD4   2104    79      2259    2260    2269    2268    0
$ Elements and Element Properties for region : PATCH_SET_ELEM_1_79
$ Composite Property Reference Material: LAM_ELEM_1_79_0_90_0
$ Composite Material Description :
PCOMP   80      
        1       0.131   -28.0928YES     1       0.131   28.0928 YES     
        1       0.131   -28.0928YES     
$ Pset: "PATCH_SET_ELEM_1_79" will be imported as: "pcomp.80"
CQUAD4   2114    80      2268    2269    2278    2277    0
$ Elements and Element Properties for region : PATCH_SET_ELEM_1_80
$ Composite Property Reference Material: LAM_ELEM_1_80_0_90_0
$ Composite Material Description :
PCOMP   81      
        1       0.131   -39.4043YES     1       0.131   39.4043 YES     
        1       0.131   -39.4043YES     
$ Pset: "PATCH_SET_ELEM_1_80" will be imported as: "pcomp.81"
CQUAD4   2124    81      2277    2278    2170    2171    0
$ Elements and Element Properties for region : PATCH_SET_ELEM_1_81
$ Composite Property Reference Material: LAM_ELEM_1_81_0_90_0
$ Composite Material Description :
PCOMP   82      
        1       0.131   -41.0158YES     1       0.131   41.0158 YES     
        1       0.131   -41.0158YES     
$ Pset: "PATCH_SET_ELEM_1_81" will be imported as: "pcomp.82"
CQUAD4   2035    82      2191    2190    2207    2206    0
$ Elements and Element Properties for region : PATCH_SET_ELEM_1_82
$ Composite Property Reference Material: LAM_ELEM_1_82_0_90_0
$ Composite Material Description :
PCOMP   83      
        1       0.131   -33.7332YES     1       0.131   33.7332 YES     
        1       0.131   -33.7332YES     
$ Pset: "PATCH_SET_ELEM_1_82" will be imported as: "pcomp.83"
CQUAD4   2045    83      2206    2207    2216    2215    0
$ Elements and Element Properties for region : PATCH_SET_ELEM_1_83
$ Composite Property Reference Material: LAM_ELEM_1_83_0_90_0
$ Composite Material Description :
PCOMP   84      
        1       0.131   -28.0928YES     1       0.131   28.0928 YES     
        1       0.131   -28.0928YES     
$ Pset: "PATCH_SET_ELEM_1_83" will be imported as: "pcomp.84"
CQUAD4   2055    84      2215    2216    2225    2224    0
$ Elements and Element Properties for region : PATCH_SET_ELEM_1_84
$ Composite Property Reference Material: LAM_ELEM_1_84_0_90_0
$ Composite Material Description :
PCOMP   85      
        1       0.131   -24.4978YES     1       0.131   24.4978 YES     
        1       0.131   -24.4978YES     
$ Pset: "PATCH_SET_ELEM_1_84" will be imported as: "pcomp.85"
CQUAD4   2065    85      2224    2225    2234    2233    0
$ Elements and Element Properties for region : PATCH_SET_ELEM_1_85
$ Composite Property Reference Material: LAM_ELEM_1_85_0_90_0
$ Composite Material Description :
PCOMP   86      
        1       0.131   -23.0442YES     1       0.131   23.0442 YES     
        1       0.131   -23.0442YES     
$ Pset: "PATCH_SET_ELEM_1_85" will be imported as: "pcomp.86"
CQUAD4   2075    86      2233    2234    2243    2242    0
$ Elements and Element Properties for region : PATCH_SET_ELEM_1_86
$ Composite Property Reference Material: LAM_ELEM_1_86_0_90_0
$ Composite Material Description :
PCOMP   87      
        1       0.131   -23.0442YES     1       0.131   23.0442 YES     
        1       0.131   -23.0442YES     
$ Pset: "PATCH_SET_ELEM_1_86" will be imported as: "pcomp.87"
CQUAD4   2085    87      2242    2243    2252    2251    0
$ Elements and Element Properties for region : PATCH_SET_ELEM_1_87
$ Composite Property Reference Material: LAM_ELEM_1_87_0_90_0
$ Composite Material Description :
PCOMP   88      
        1       0.131   -24.4978YES     1       0.131   24.4978 YES     
        1       0.131   -24.4978YES     
$ Pset: "PATCH_SET_ELEM_1_87" will be imported as: "pcomp.88"
CQUAD4   2095    88      2251    2252    2261    2260    0
$ Elements and Element Properties for region : PATCH_SET_ELEM_1_88
$ Composite Property Reference Material: LAM_ELEM_1_88_0_90_0
$ Composite Material Description :
PCOMP   89      
        1       0.131   -28.0928YES     1       0.131   28.0928 YES     
        1       0.131   -28.0928YES     
$ Pset: "PATCH_SET_ELEM_1_88" will be imported as: "pcomp.89"
CQUAD4   2105    89      2260    2261    2270    2269    0
$ Elements and Element Properties for region : PATCH_SET_ELEM_1_89
$ Composite Property Reference Material: LAM_ELEM_1_89_0_90_0
$ Composite Material Description :
PCOMP   90      
        1       0.131   -33.7332YES     1       0.131   33.7332 YES     
        1       0.131   -33.7332YES     
$ Pset: "PATCH_SET_ELEM_1_89" will be imported as: "pcomp.90"
CQUAD4   2115    90      2269    2270    2279    2278    0
$ Elements and Element Properties for region : PATCH_SET_ELEM_1_90
$ Composite Property Reference Material: LAM_ELEM_1_90_0_90_0
$ Composite Material Description :
PCOMP   91      
        1       0.131   -41.0158YES     1       0.131   41.0158 YES     
        1       0.131   -41.0158YES     
$ Pset: "PATCH_SET_ELEM_1_90" will be imported as: "pcomp.91"
CQUAD4   2125    91      2278    2279    2169    2170    0
$ Elements and Element Properties for region : PATCH_SET_ELEM_1_91
$ Composite Property Reference Material: LAM_ELEM_1_91_0_90_0
$ Composite Material Description :
PCOMP   92      
        1       0.131   -44.7254YES     1       0.131   44.7254 YES     
        1       0.131   -44.7254YES     
$ Pset: "PATCH_SET_ELEM_1_91" will be imported as: "pcomp.92"
CQUAD4   2036    92      2190    2188    2187    2207    0
$ Elements and Element Properties for region : PATCH_SET_ELEM_1_92
$ Composite Property Reference Material: LAM_ELEM_1_92_0_90_0
$ Composite Material Description :
PCOMP   93      
        1       0.131   -41.0158YES     1       0.131   41.0158 YES     
        1       0.131   -41.0158YES     
$ Pset: "PATCH_SET_ELEM_1_92" will be imported as: "pcomp.93"
CQUAD4   2046    93      2207    2187    2186    2216    0
$ Elements and Element Properties for region : PATCH_SET_ELEM_1_93
$ Composite Property Reference Material: LAM_ELEM_1_93_0_90_0
$ Composite Material Description :
PCOMP   94      
        1       0.131   -39.4043YES     1       0.131   39.4043 YES     
        1       0.131   -39.4043YES     
$ Pset: "PATCH_SET_ELEM_1_93" will be imported as: "pcomp.94"
CQUAD4   2056    94      2216    2186    2185    2225    0
$ Elements and Element Properties for region : PATCH_SET_ELEM_1_94
$ Composite Property Reference Material: LAM_ELEM_1_94_0_90_0
$ Composite Material Description :
PCOMP   95      
        1       0.131   -39.7381YES     1       0.131   39.7381 YES     
        1       0.131   -39.7381YES     
$ Pset: "PATCH_SET_ELEM_1_94" will be imported as: "pcomp.95"
CQUAD4   2066    95      2225    2185    2184    2234    0
$ Elements and Element Properties for region : PATCH_SET_ELEM_1_95
$ Composite Property Reference Material: LAM_ELEM_1_95_0_90_0
$ Composite Material Description :
PCOMP   96      
        1       0.131   -41.3807YES     1       0.131   41.3807 YES     
        1       0.131   -41.3807YES     
$ Pset: "PATCH_SET_ELEM_1_95" will be imported as: "pcomp.96"
CQUAD4   2076    96      2234    2184    2183    2243    0
$ Elements and Element Properties for region : PATCH_SET_ELEM_1_96
$ Composite Property Reference Material: LAM_ELEM_1_96_0_90_0
$ Composite Material Description :
PCOMP   97      
        1       0.131   -41.3807YES     1       0.131   41.3807 YES     
        1       0.131   -41.3807YES     
$ Pset: "PATCH_SET_ELEM_1_96" will be imported as: "pcomp.97"
CQUAD4   2086    97      2243    2183    2182    2252    0
$ Elements and Element Properties for region : PATCH_SET_ELEM_1_97
$ Composite Property Reference Material: LAM_ELEM_1_97_0_90_0
$ Composite Material Description :
PCOMP   98      
        1       0.131   -39.7381YES     1       0.131   39.7381 YES     
        1       0.131   -39.7381YES     
$ Pset: "PATCH_SET_ELEM_1_97" will be imported as: "pcomp.98"
CQUAD4   2096    98      2252    2182    2181    2261    0
$ Elements and Element Properties for region : PATCH_SET_ELEM_1_98
$ Composite Property Reference Material: LAM_ELEM_1_98_0_90_0
$ Composite Material Description :
PCOMP   99      
        1       0.131   -39.4043YES     1       0.131   39.4043 YES     
        1       0.131   -39.4043YES     
$ Pset: "PATCH_SET_ELEM_1_98" will be imported as: "pcomp.99"
CQUAD4   2106    99      2261    2181    2180    2270    0
$ Elements and Element Properties for region : PATCH_SET_ELEM_1_99
$ Composite Property Reference Material: LAM_ELEM_1_99_0_90_0
$ Composite Material Description :
PCOMP   100     
        1       0.131   -41.0158YES     1       0.131   41.0158 YES     
        1       0.131   -41.0158YES     
$ Pset: "PATCH_SET_ELEM_1_99" will be imported as: "pcomp.100"
CQUAD4   2116    100     2270    2180    2179    2279    0
$ Elements and Element Properties for region : PATCH_SET_ELEM_1_100
$ Composite Property Reference Material: LAM_ELEM_1_100_0_90_0
$ Composite Material Description :
PCOMP   101     
        1       0.131   -44.7254YES     1       0.131   44.7254 YES     
        1       0.131   -44.7254YES     
$ Pset: "PATCH_SET_ELEM_1_100" will be imported as: "pcomp.101"
CQUAD4   2126    101     2279    2179    2178    2169    0
$ Referenced Material Records
$ Material Record : CFRP
$ Description of Material : Date: 05-May-26           Time: 23:25:58
MAT8     1       131710. 6360.   .32     4180.   4180.   4180.   140.
$ Nodes of the Entire Model
GRID     1               52.     10.     0.
GRID*    2                              51.956329345703110.4159049987793
*        0.
GRID*    3                              51.827121734619110.8135356903076
*        0.
GRID*    4                              51.617965698242211.1757583618164
*        0.
GRID*    5                              51.338153839111311.4864196777344
*        0.
GRID*    6                              50.9998359680176 11.732177734375
*        0.
GRID*    7                              50.617771148681611.9022130966187
*        0.
GRID*    8                              50.208858489990211.9890727996826
*        0.
GRID*    9                              49.790702819824211.9890260696411
*        0.
GRID*    10                              49.38177871704111.9020833969116
*        0.
GRID*    11                             48.999938964843811.7320613861084
*        0.
GRID*    12                             48.661743164062511.4863004684448
*        0.
GRID*    13                             48.381938934326211.1755990982056
*        0.
GRID*    14                             48.172901153564510.8135633468628
*        0.
GRID*    15                             48.043670654296910.4158411026001
*        0.
GRID*    16                              48.            10.0000133514404
*        0.
GRID*    17                             48.0436553955078 9.5841817855835
*        0.
GRID*    18                             48.17291641235359.18637943267822
*        0.
GRID*    19                             48.3819770812988 8.8243236541748
*        0.
GRID*    20                             48.6618804931641 8.5135612487793
*        0.
GRID*    21                             49.00019073486338.26779937744141
*        0.
$ ... 216 like lines cut
GRID     130             100.    0.      0.
GRID*    131                             100.           19.0007991790771
*        0.
GRID*    132                             100.           18.0005989074707
*        0.
GRID*    133                             100.           17.0003986358643
*        0.
GRID*    134                             100.           16.0002002716064
*        0.
GRID     135             100.    15.     0.
GRID*    136                             100.           13.9997997283936
*        0.
GRID*    137                             100.           12.9995994567871
*        0.
GRID*    138                             100.           11.9993991851807
*        0.
GRID*    139                             100.           10.9991998672485
*        0.
GRID*    140                             100.            9.9989995956421
*        0.
GRID*    141                             100.           8.99879932403564
*        0.
GRID*    142                             100.           7.99859952926636
*        0.
GRID*    143                             100.           6.99839925765991
*        0.
GRID*    144                             100.           5.99819946289063
*        0.
GRID*    145                             100.           4.99799919128418
*        0.
GRID*    146                             100.           3.99779939651489
*        0.
GRID*    147                             100.           2.99759936332703
*        0.
GRID*    148                             100.           1.99739933013916
*        0.
GRID*    149                             100.           .997199356555939
*        0.
GRID     150             100.    20.     0.
GRID*    151                             99.007194519043 20.
*        0.
GRID*    152                            98.0069961547852 20.
*        0.
GRID*    153                            97.0067977905273 20.
*        0.
GRID*    154                            96.0065994262695 20.
*        0.
GRID*    155                            95.0064010620117 20.
*        0.
GRID*    156                            94.0061950683594 20.
*        0.
GRID*    157                            93.0059967041016 20.
*        0.
GRID*    158                            92.0057983398438 20.
*        0.
GRID*    159                            91.0055999755859 20.
*        0.
GRID*    160                            90.0053939819336 20.
*        0.
GRID*    161                            89.0051956176758 20.
*        0.
GRID*    162                             88.004997253418 20.
*        0.
GRID*    163                            87.0047988891602 20.
*        0.
GRID*    164                            86.0046005249023 20.
*        0.
GRID*    165                             85.00439453125  20.
*        0.
GRID*    166                            84.0041961669922 20.
*        0.
GRID*    167                            83.0039978027344 20.
*        0.
GRID*    168                            82.0037994384766 20.
*        0.
GRID*    169                            81.0036010742188 20.
*        0.
GRID*    170                            80.0033950805664 20.
*        0.
$ ... 158 like lines cut
GRID     250             0.      20.     0.
GRID     251             0.      0.      0.
GRID*    252                             0.             19.0007991790771
*        0.
GRID*    253                             0.             18.0005989074707
*        0.
GRID*    254                             0.             17.0003986358643
*        0.
GRID*    255                             0.             16.0002002716064
*        0.
GRID     256             0.      15.     0.
GRID*    257                             0.             13.9997997283936
*        0.
GRID*    258                             0.             12.9995994567871
*        0.
GRID*    259                             0.             11.9993991851807
*        0.
GRID*    260                             0.             10.9991998672485
*        0.
GRID*    261                             0.              9.9989995956421
*        0.
GRID*    262                             0.             8.99879932403564
*        0.
GRID*    263                             0.             7.99859952926636
*        0.
GRID*    264                             0.             6.99839925765991
*        0.
GRID*    265                             0.             5.99819946289063
*        0.
GRID*    266                             0.             4.99799919128418
*        0.
GRID*    267                             0.             3.99779939651489
*        0.
GRID*    268                             0.             2.99759936332703
*        0.
GRID*    269                             0.             1.99739933013916
*        0.
GRID*    270                             0.             .997199356555939
*        0.
GRID*    271                            49.188426971435512.6530847549438
*        0.
GRID*    272                            48.646781921386712.3650598526001
*        0.
GRID*    273                            48.168350219726612.0056371688843
*        0.
GRID*    274                             47.78802871704111.5645389556885
*        0.
GRID*    275                            47.507408142089811.0712080001831
*        0.
GRID*    276                            47.320571899414110.5370626449585
*        0.
$ ... 3768 like lines cut
GRID     2161            52.     5.      0.
GRID*    2162                           50.9997978210449 5.
*        0.
GRID*    2163                           49.9995994567871 5.
*        0.
GRID*    2164                           48.9994010925293 5.
*        0.
GRID*    2165                           47.9991989135742 5.
*        0.
GRID*    2166                           46.9990005493164 5.
*        0.
GRID*    2167                           45.9987983703613 5.
*        0.
GRID     2168            55.     5.      0.
GRID*    2169                            55.            14.0003995895386
*        0.
GRID*    2170                            55.            13.0002002716064
*        0.
GRID     2171            55.     12.     0.
GRID*    2172                            55.            10.9997997283936
*        0.
GRID*    2173                            55.             9.9995994567871
*        0.
GRID*    2174                            55.            8.99940013885498
*        0.
GRID*    2175                            55.            7.99919986724854
*        0.
GRID*    2176                            55.            6.99899959564209
*        0.
GRID*    2177                            55.             5.9987998008728
*        0.
GRID     2178            55.     15.     0.
GRID*    2179                           54.0004005432129 15.
*        0.
GRID*    2180                           53.0001983642578 15.
*        0.
GRID     2181            52.     15.     0.
GRID*    2182                           50.9997978210449 15.
*        0.
GRID*    2183                           49.9995994567871 15.
*        0.
GRID*    2184                           48.9994010925293 15.
*        0.
GRID*    2185                           47.9991989135742 15.
*        0.
GRID*    2186                           46.9990005493164 15.
*        0.
GRID*    2187                           45.9987983703613 15.
*        0.
GRID     2188            45.     15.     0.
GRID     2189            45.     5.      0.
GRID*    2190                            45.            14.0003995895386
*        0.
GRID*    2191                            45.            13.0002002716064
*        0.
GRID     2192            45.     12.     0.
GRID*    2193                            45.            10.9997997283936
*        0.
GRID*    2194                            45.             9.9995994567871
*        0.
GRID*    2195                            45.            8.99940013885498
*        0.
GRID*    2196                            45.            7.99919986724854
*        0.
GRID*    2197                            45.            6.99899959564209
*        0.
GRID*    2198                            45.             5.9987998008728
*        0.
GRID*    2199                           45.99879837036135.99947738647461
*        0.
GRID*    2200                           45.99879837036136.99924182891846
*        0.
GRID*    2201                           45.99879837036137.99926090240479
*        0.
GRID*    2202                           45.99879837036138.99941253662109
*        0.
GRID*    2203                           45.9987983703613 9.9996004104614
*        0.
GRID*    2204                           45.998798370361310.9997940063477
*        0.
GRID*    2205                           45.998798370361311.9999723434448
*        0.
GRID*    2206                           45.998798370361313.0000953674316
*        0.
GRID*    2207                           45.998798370361314.0001087188721
*        0.
GRID*    2208                           46.99900054931645.99957704544067
*        0.
GRID*    2209                           46.99900054931646.99932718276978
*        0.
GRID*    2210                           46.99900054931647.99929666519165
*        0.
GRID*    2211                           46.99900054931648.99941730499268
*        0.
GRID*    2212                           46.9990005493164 9.9996013641357
*        0.
$ ... 134 like lines cut
$ Loads for Load Case : Default
SPCADD   2       1       3
LOAD     2       1.      1.      1
$ Displacement Constraints of Load Set : FIX_SIDE
SPC1     1       123456  250     THRU    270
$ Displacement Constraints of Load Set : MOVE_SIDE
SPC1     3       23456   130     THRU    150
$ Deform Body Contact LBC set: PATCH_CONTACT
BCBODY1  1       5001    3D      DEFORM  4
BCBDPRP  5001            COPTB   1061
BSURF    4       2027    2028    2029    2030    2031    2032    2033
         2034    2035    2036    2037    2038    2039    2040    2041
         2042    2043    2044    2045    2046    2047    2048    2049
         2050    2051    2052    2053    2054    2055    2056    2057
         2058    2059    2060    2061    2062    2063    2064    2065
         2066    2067    2068    2069    2070    2071    2072    2073
         2074    2075    2076    2077    2078    2079    2080    2081
         2082    2083    2084    2085    2086    2087    2088    2089
         2090    2091    2092    2093    2094    2095    2096    2097
         2098    2099    2100    2101    2102    2103    2104    2105
         2106    2107    2108    2109    2110    2111    2112    2113
         2114    2115    2116    2117    2118    2119    2120    2121
         2122    2123    2124    2125    2126
$ Deform Body Contact LBC set: PLATE_CONTACT
BCBODY1  2       5002    3D      DEFORM  5
BCBDPRP  5002            COPTB   1061
BSURF    5       1       2       3       4       5       6       7
         8       9       10      11      12      13      14      15
         16      17      18      19      20      21      22      23
         24      25      26      27      28      29      30      31
         32      33      34      35      36      37      38      39
         40      41      42      43      44      45      46      47
         48      49      50      51      52      53      54      55
         56      57      58      59      60      61      62      63
         64      65      66      67      68      69      70      71
         72      73      74      75      76      77      78      79
         80      81      82      83      84      85      86      87
         88      89      90      91      92      93      94      95
         96      97      98      99      100     101     102     103
         104     105     106     107     108     109     110     111
         112     113     114     115     116     117     118     119
         120     121     122     123     124     125     126     127
         128     129     130     131     132     133     134     135
         136     137     138     139     140     141     142     143
         144     145     146     147     148     149     150     151
         152     153     154     155     156     157     158     159
         160     161     162     163     164     165     166     167
$ ... 233 like lines cut
$ Nodal Forces of Load Set : FORCE_SIDE
FORCE    1       130     0       1.      -1.     0.      0.
FORCE    1       131     0       1.      -1.     0.      0.
FORCE    1       132     0       1.      -1.     0.      0.
FORCE    1       133     0       1.      -1.     0.      0.
FORCE    1       134     0       1.      -1.     0.      0.
FORCE    1       135     0       1.      -1.     0.      0.
FORCE    1       136     0       1.      -1.     0.      0.
FORCE    1       137     0       1.      -1.     0.      0.
FORCE    1       138     0       1.      -1.     0.      0.
FORCE    1       139     0       1.      -1.     0.      0.
FORCE    1       140     0       1.      -1.     0.      0.
FORCE    1       141     0       1.      -1.     0.      0.
FORCE    1       142     0       1.      -1.     0.      0.
FORCE    1       143     0       1.      -1.     0.      0.
FORCE    1       144     0       1.      -1.     0.      0.
FORCE    1       145     0       1.      -1.     0.      0.
FORCE    1       146     0       1.      -1.     0.      0.
FORCE    1       147     0       1.      -1.     0.      0.
FORCE    1       148     0       1.      -1.     0.      0.
FORCE    1       149     0       1.      -1.     0.      0.
FORCE    1       150     0       1.      -1.     0.      0.
$ Referenced Coordinate Frames
ENDDATA 75f423c2
